
     RDKit          3D

 16 15  0  0  0  0  0  0  0  0999 V2000
    2.2474   -1.0845   -0.3966 C   0  0  0  0  0  0  0  0  0  0  0  0
    1.4664    0.1506   -0.4103 N   0  0  0  0  0  0  0  0  0  0  0  0
   -0.0223    0.2311    0.3544 S   0  0  0  0  0  6  0  0  0  0  0  0
   -0.4785    1.6123    0.1818 O   0  0  0  0  0  0  0  0  0  0  0  0
    0.1469   -0.3787    1.6757 O   0  0  0  0  0  0  0  0  0  0  0  0
   -1.1538   -0.8405   -0.5911 C   0  0  0  0  0  0  0  0  0  0  0  0
   -2.2385   -0.0173   -1.2846 C   0  0  0  0  0  0  0  0  0  0  0  0
    1.8903   -1.8467   -1.1055 H   0  0  0  0  0  0  0  0  0  0  0  0
    3.2858   -0.8392   -0.6386 H   0  0  0  0  0  0  0  0  0  0  0  0
    2.2200   -1.4937    0.6154 H   0  0  0  0  0  0  0  0  0  0  0  0
    1.4761    0.6911   -1.2697 H   0  0  0  0  0  0  0  0  0  0  0  0
   -1.5812   -1.5531    0.1216 H   0  0  0  0  0  0  0  0  0  0  0  0
   -0.5328   -1.3843   -1.3100 H   0  0  0  0  0  0  0  0  0  0  0  0
   -2.8353    0.5307   -0.5506 H   0  0  0  0  0  0  0  0  0  0  0  0
   -2.9015   -0.6815   -1.8486 H   0  0  0  0  0  0  0  0  0  0  0  0
   -1.7938    0.7010   -1.9790 H   0  0  0  0  0  0  0  0  0  0  0  0
  1  2  1  0
  2  3  1  0
  3  4  2  0
  3  5  2  0
  3  6  1  0
  6  7  1  0
  1  8  1  0
  1  9  1  0
  1 10  1  0
  2 11  1  0
  6 12  1  0
  6 13  1  0
  7 14  1  0
  7 15  1  0
  7 16  1  0
M  END
